
     RDKit          3D

 64 68  0  0  0  0  0  0  0  0999 V2000
   -4.6554    5.7709   -0.7838 O   0  0  0  0  0  0  0  0  0  0  0  0
   -4.3641    4.4527   -1.0444 C   0  0  0  0  0  0  0  0  0  0  0  0
   -4.4311    3.9795   -2.3227 C   0  0  0  0  0  0  0  0  0  0  0  0
   -4.1402    2.6671   -2.5758 C   0  0  0  0  0  0  0  0  0  0  0  0
   -3.7754    1.8106   -1.5339 C   0  0  0  0  0  0  0  0  0  0  0  0
   -3.7097    2.2948   -0.2459 C   0  0  0  0  0  0  0  0  0  0  0  0
   -3.9983    3.5869   -0.0116 C   0  0  0  0  0  0  0  0  0  0  0  0
   -3.2462    1.1969    1.0573 S   0  0  0  0  0  0  0  0  0  0  0  0
   -3.6194   -0.4629    0.3573 C   0  0  2  0  0  0  0  0  0  0  0  0
   -3.1822   -1.5499    1.2635 C   0  0  0  0  0  0  0  0  0  0  0  0
   -3.9246   -1.3491    2.5941 C   0  0  0  0  0  0  0  0  0  0  0  0
   -5.3630   -1.5293    2.1862 C   0  0  0  0  0  0  0  0  0  0  0  0
   -5.3311   -2.5217    1.0709 C   0  0  0  0  0  0  0  0  0  0  0  0
   -3.8658   -2.8430    0.8103 C   0  0  0  0  0  0  0  0  0  0  0  0
   -2.9970   -0.4900   -1.0046 C   0  0  2  0  0  0  0  0  0  0  0  0
   -1.5376   -0.6328   -1.0246 C   0  0  0  0  0  0  0  0  0  0  0  0
   -0.9501   -1.8768   -1.0754 C   0  0  0  0  0  0  0  0  0  0  0  0
    0.4220   -2.0045   -1.0968 C   0  0  0  0  0  0  0  0  0  0  0  0
    1.2625   -0.9047   -1.0687 C   0  0  0  0  0  0  0  0  0  0  0  0
    2.6582   -1.0700   -1.0917 O   0  0  0  0  0  0  0  0  0  0  0  0
    3.4379    0.1072   -1.0602 C   0  0  0  0  0  0  0  0  0  0  0  0
    4.9064   -0.1694   -1.0882 C   0  0  0  0  0  0  0  0  0  0  0  0
    5.4073   -0.9579   -0.0163 N   0  0  0  0  0  0  0  0  0  0  0  0
    6.8378   -1.1862   -0.1047 C   0  0  0  0  0  0  0  0  0  0  0  0
    7.5887   -0.6875    1.0999 C   0  0  0  0  0  0  0  0  0  0  0  0
    7.0965    0.7100    1.4087 C   0  0  0  0  0  0  0  0  0  0  0  0
    5.6498    0.6210    1.8457 C   0  0  0  0  0  0  0  0  0  0  0  0
    4.9771   -0.6136    1.2946 C   0  0  0  0  0  0  0  0  0  0  0  0
    0.6699    0.3392   -1.0179 C   0  0  0  0  0  0  0  0  0  0  0  0
   -0.7233    0.4708   -0.9961 C   0  0  0  0  0  0  0  0  0  0  0  0
   -3.4948    0.5110   -1.8359 O   0  0  0  0  0  0  0  0  0  0  0  0
   -3.9576    6.4920   -0.7991 H   0  0  0  0  0  0  0  0  0  0  0  0
   -4.7141    4.6223   -3.1687 H   0  0  0  0  0  0  0  0  0  0  0  0
   -4.1818    2.2554   -3.5716 H   0  0  0  0  0  0  0  0  0  0  0  0
   -3.9597    4.0065    0.9781 H   0  0  0  0  0  0  0  0  0  0  0  0
   -4.7071   -0.5042    0.2375 H   0  0  0  0  0  0  0  0  0  0  0  0
   -2.1086   -1.6666    1.4022 H   0  0  0  0  0  0  0  0  0  0  0  0
   -3.7147   -0.3692    3.0251 H   0  0  0  0  0  0  0  0  0  0  0  0
   -3.6653   -2.1903    3.2746 H   0  0  0  0  0  0  0  0  0  0  0  0
   -5.9823   -1.9376    3.0374 H   0  0  0  0  0  0  0  0  0  0  0  0
   -5.8519   -0.5667    1.9237 H   0  0  0  0  0  0  0  0  0  0  0  0
   -5.8488   -2.1929    0.1576 H   0  0  0  0  0  0  0  0  0  0  0  0
   -5.8437   -3.4695    1.3899 H   0  0  0  0  0  0  0  0  0  0  0  0
   -3.7756   -3.0363   -0.2551 H   0  0  0  0  0  0  0  0  0  0  0  0
   -3.5069   -3.6988    1.3952 H   0  0  0  0  0  0  0  0  0  0  0  0
   -3.4079   -1.4492   -1.4723 H   0  0  0  0  0  0  0  0  0  0  0  0
   -1.5534   -2.7982   -1.1010 H   0  0  0  0  0  0  0  0  0  0  0  0
    0.8806   -2.9929   -1.1371 H   0  0  0  0  0  0  0  0  0  0  0  0
    3.1152    0.6877   -1.9667 H   0  0  0  0  0  0  0  0  0  0  0  0
    3.1983    0.7211   -0.1826 H   0  0  0  0  0  0  0  0  0  0  0  0
    5.5167    0.7502   -1.1654 H   0  0  0  0  0  0  0  0  0  0  0  0
    5.0892   -0.7649   -2.0331 H   0  0  0  0  0  0  0  0  0  0  0  0
    7.2166   -0.6594   -0.9944 H   0  0  0  0  0  0  0  0  0  0  0  0
    7.0725   -2.2623   -0.2289 H   0  0  0  0  0  0  0  0  0  0  0  0
    7.4594   -1.3657    1.9609 H   0  0  0  0  0  0  0  0  0  0  0  0
    8.6647   -0.6897    0.8434 H   0  0  0  0  0  0  0  0  0  0  0  0
    7.7334    1.2084    2.1623 H   0  0  0  0  0  0  0  0  0  0  0  0
    7.1681    1.3101    0.4819 H   0  0  0  0  0  0  0  0  0  0  0  0
    5.1160    1.5551    1.5946 H   0  0  0  0  0  0  0  0  0  0  0  0
    5.6465    0.5291    2.9516 H   0  0  0  0  0  0  0  0  0  0  0  0
    3.8886   -0.4431    1.2988 H   0  0  0  0  0  0  0  0  0  0  0  0
    5.1675   -1.4617    2.0110 H   0  0  0  0  0  0  0  0  0  0  0  0
    1.3079    1.2189   -0.9949 H   0  0  0  0  0  0  0  0  0  0  0  0
   -1.0668    1.4931   -0.9583 H   0  0  0  0  0  0  0  0  0  0  0  0
  1  2  1  0
  2  3  2  0
  3  4  1  0
  4  5  2  0
  5  6  1  0
  6  7  2  0
  6  8  1  0
  8  9  1  0
  9 10  1  0
 10 11  1  0
 11 12  1  0
 12 13  1  0
 13 14  1  0
  9 15  1  0
 15 16  1  0
 16 17  2  0
 17 18  1  0
 18 19  2  0
 19 20  1  0
 20 21  1  0
 21 22  1  0
 22 23  1  0
 23 24  1  0
 24 25  1  0
 25 26  1  0
 26 27  1  0
 27 28  1  0
 19 29  1  0
 29 30  2  0
 15 31  1  0
  7  2  1  0
 14 10  1  0
 30 16  1  0
 31  5  1  0
 28 23  1  0
  1 32  1  0
  3 33  1  0
  4 34  1  0
  7 35  1  0
  9 36  1  6
 10 37  1  0
 11 38  1  0
 11 39  1  0
 12 40  1  0
 12 41  1  0
 13 42  1  0
 13 43  1  0
 14 44  1  0
 14 45  1  0
 15 46  1  6
 17 47  1  0
 18 48  1  0
 21 49  1  0
 21 50  1  0
 22 51  1  0
 22 52  1  0
 24 53  1  0
 24 54  1  0
 25 55  1  0
 25 56  1  0
 26 57  1  0
 26 58  1  0
 27 59  1  0
 27 60  1  0
 28 61  1  0
 28 62  1  0
 29 63  1  0
 30 64  1  0
M  END
$$$$
